LTspice 26.0.1 for Windows
Circuit: C:\users\anton\Documents\tste96\555_astabil_1.net
Start Time: Sun Feb 15 01:44:16 2026
solver = Normal
Maximum thread count: 8
tnom = 27
temp = 27
method = trap
Per .tran options, skipping operating point for transient analysis.
Total elapsed time: 0.086 seconds.

Files loaded:
C:\users\anton\Documents\tste96\555_astabil_1.net
C:\users\anton\AppData\Local\LTspice\lib\cmp\standard.dio
C:\users\anton\AppData\Local\LTspice\lib\sub\NE555.sub

